@<TRIPOS>MOLECULE
*****
 9 8 0 0 0
SMALL
GASTEIGER

@<TRIPOS>ATOM
      1 O           0.0000    0.0000    0.0000 O.3     1  UNL1       -0.1143
      2 P           0.0000    0.0000    0.0000 P.3     1  UNL1        0.5404
      3 O           0.0000    0.0000    0.0000 O.3     1  UNL1       -0.1143
      4 O           0.0000    0.0000    0.0000 O.2     1  UNL1       -0.2220
      5 O           0.0000    0.0000    0.0000 O.3     1  UNL1       -0.1798
      6 P           0.0000    0.0000    0.0000 P.3     1  UNL1        0.5404
      7 O           0.0000    0.0000    0.0000 O.3     1  UNL1       -0.1143
      8 O           0.0000    0.0000    0.0000 O.3     1  UNL1       -0.1143
      9 O           0.0000    0.0000    0.0000 O.2     1  UNL1       -0.2220
@<TRIPOS>BOND
     1     1     2    1
     2     2     3    1
     3     2     4    2
     4     2     5    1
     5     5     6    1
     6     6     7    1
     7     6     8    1
     8     6     9    2
