@<TRIPOS>MOLECULE
*****
 4 3 0 0 0
SMALL
GASTEIGER

@<TRIPOS>ATOM
      1 C           7.6315   -7.6253    0.0000 C.2     1  UNL1        0.1515
      2 O          10.2471   -7.6253    0.0000 O.2     1  UNL1       -0.2960
      3 C           6.3236   -5.3601    0.0000 C.3     1  UNL1        0.0723
      4 C           6.3236   -9.8906    0.0000 C.3     1  UNL1        0.0723
@<TRIPOS>BOND
     1     1     2    2
     2     1     3    1
     3     1     4    1
