@<TRIPOS>MOLECULE
*****
 5 4 0 0 0
SMALL
GASTEIGER

@<TRIPOS>ATOM
      1 C           9.9693   -9.1548    0.0000 C.2     1  UNL1        0.1511
      2 O          12.5849   -9.1548    0.0000 O.2     1  UNL1       -0.2960
      3 C           8.6614   -6.8896    0.0000 C.3     1  UNL1        0.0645
      4 C           6.0458   -6.8896    0.0000 C.3     1  UNL1        0.0082
      5 C           8.6614  -11.4201    0.0000 C.3     1  UNL1        0.0722
@<TRIPOS>BOND
     1     1     2    2
     2     1     3    1
     3     3     4    1
     4     1     5    1
