@<TRIPOS>MOLECULE
*****
 7 6 0 0 0
SMALL
GASTEIGER

@<TRIPOS>ATOM
      1 C          11.2251   -9.3616    0.0000 C.2     1  UNL1        0.1502
      2 O          13.8408   -9.3616    0.0000 O.2     1  UNL1       -0.2961
      3 C           9.9173   -7.0964    0.0000 C.3     1  UNL1        0.0645
      4 C           7.3016   -7.0964    0.0000 C.3     1  UNL1        0.0082
      5 C           9.9173  -11.6268    0.0000 C.3     1  UNL1        0.0576
      6 C           7.3016  -11.6268    0.0000 C.3     1  UNL1        0.0078
      7 C          11.2251  -13.8921    0.0000 C.3     1  UNL1        0.0078
@<TRIPOS>BOND
     1     1     2    2
     2     1     3    1
     3     3     4    1
     4     1     5    1
     5     5     6    1
     6     5     7    1
