@<TRIPOS>MOLECULE
*****
 7 6 0 0 0
SMALL
GASTEIGER

@<TRIPOS>ATOM
      1 C          11.9261  -12.8163    0.0000 C.2     1  UNL1        0.1503
      2 O          14.5418  -12.8163    0.0000 O.2     1  UNL1       -0.2961
      3 C          10.6183  -10.5511    0.0000 C.3     1  UNL1        0.0516
      4 C           8.3531  -11.8589    0.0000 C.3     1  UNL1        0.0073
      5 C          10.6183  -15.0815    0.0000 C.3     1  UNL1        0.0722
      6 C          12.8835   -9.2432    0.0000 C.3     1  UNL1        0.0073
      7 C           9.3105   -8.2858    0.0000 C.3     1  UNL1        0.0073
@<TRIPOS>BOND
     1     1     2    2
     2     1     3    1
     3     3     4    1
     4     1     5    1
     5     3     6    1
     6     3     7    1
