@<TRIPOS>MOLECULE
*****
 9 9 0 0 0
SMALL
GASTEIGER

@<TRIPOS>ATOM
      1 C           9.1438   -9.3544    0.0000 C.2     1  UNL1        0.1507
      2 C          11.7594   -9.3544    0.0000 C.3     1  UNL1        0.0576
      3 C          13.0673   -7.0891    0.0000 C.3     1  UNL1        0.0073
      4 C          13.0673  -11.6196    0.0000 C.3     1  UNL1        0.0073
      5 C          15.6829   -7.0891    0.0000 C.3     1  UNL1        0.0004
      6 C          15.6829  -11.6196    0.0000 C.3     1  UNL1        0.0004
      7 C          16.9908   -9.3544    0.0000 C.3     1  UNL1        0.0000
      8 O           7.8359   -7.0891    0.0000 O.2     1  UNL1       -0.2961
      9 C           7.8359  -11.6196    0.0000 C.3     1  UNL1        0.0722
@<TRIPOS>BOND
     1     2     3    1
     2     2     4    1
     3     3     5    1
     4     4     6    1
     5     5     7    1
     6     6     7    1
     7     1     2    1
     8     1     8    2
     9     1     9    1
