@<TRIPOS>MOLECULE
*****
 8 8 0 0 0
SMALL
GASTEIGER

@<TRIPOS>ATOM
      1 C           5.5306   -7.6919    0.0000 C.2     1  UNL1        0.2296
      2 C           8.1463   -7.6919    0.0000 C.2     1  UNL1        0.0157
      3 C           9.4541   -5.4266    0.0000 C.2     1  UNL1       -0.0271
      4 C           9.4541   -9.9571    0.0000 C.3     1  UNL1        0.0294
      5 C          12.0698   -5.4266    0.0000 C.3     1  UNL1        0.0258
      6 C          12.0698   -9.9571    0.0000 C.3     1  UNL1        0.0051
      7 C          13.3776   -7.6919    0.0000 C.3     1  UNL1        0.0050
      8 O           4.2228   -5.4266    0.0000 O.2     1  UNL1       -0.2835
@<TRIPOS>BOND
     1     2     3    2
     2     2     4    1
     3     3     5    1
     4     4     6    1
     5     5     7    1
     6     6     7    1
     7     1     2    1
     8     1     8    2
