@<TRIPOS>MOLECULE
*****
 4 3 0 0 0
SMALL
GASTEIGER

@<TRIPOS>ATOM
      1 C           9.1491   -9.6254    0.0000 C.2     1  UNL1        0.2343
      2 O          11.7648   -9.6254    0.0000 O.2     1  UNL1       -0.2831
      3 C           7.8413   -7.3602    0.0000 C.2     1  UNL1        0.0454
      4 C           5.2256   -7.3602    0.0000 C.2     1  UNL1        0.0035
@<TRIPOS>BOND
     1     1     2    2
     2     1     3    1
     3     3     4    2
