@<TRIPOS>MOLECULE
*****
 6 5 0 0 0
SMALL
GASTEIGER

@<TRIPOS>ATOM
      1 C           7.5548   -7.2790    0.0000 C.2     1  UNL1        0.2065
      2 O          10.1705   -7.2790    0.0000 O.2     1  UNL1       -0.2883
      3 C           6.2470   -5.0138    0.0000 C.3     1  UNL1        0.0584
      4 C           3.9817   -6.3216    0.0000 C.3     1  UNL1        0.0078
      5 C           8.5122   -3.7060    0.0000 C.3     1  UNL1        0.0078
      6 C           4.9391   -2.7486    0.0000 C.3     1  UNL1        0.0078
@<TRIPOS>BOND
     1     1     2    2
     2     1     3    1
     3     3     4    1
     4     3     5    1
     5     3     6    1
