@<TRIPOS>MOLECULE
*****
 8 8 0 0 0
SMALL
GASTEIGER

@<TRIPOS>ATOM
      1 C           9.6171   -7.1377    0.0000 C.ar    1  UNL1        0.0422
      2 C           9.6171   -9.7533    0.0000 C.ar    1  UNL1        0.0033
      3 C           7.3516   -5.8298    0.0000 C.ar    1  UNL1        0.0033
      4 C           7.3516  -11.0612    0.0000 C.ar    1  UNL1        0.0001
      5 C           5.0865   -7.1377    0.0000 C.ar    1  UNL1        0.0001
      6 C           5.0865   -9.7533    0.0000 C.ar    1  UNL1        0.0000
      7 C          11.8823   -5.8298    0.0000 C.2     1  UNL1        0.2342
      8 O          14.1475   -7.1376    0.0000 O.2     1  UNL1       -0.2831
@<TRIPOS>BOND
     1     1     2   ar
     2     1     3   ar
     3     2     4   ar
     4     3     5   ar
     5     4     6   ar
     6     5     6   ar
     7     1     7    1
     8     7     8    2
