@<TRIPOS>MOLECULE
*****
 9 9 0 0 0
SMALL
GASTEIGER

@<TRIPOS>ATOM
      1 C           9.1516   -9.0662    0.0000 C.ar    1  UNL1        0.0347
      2 C           9.1516  -11.6818    0.0000 C.ar    1  UNL1        0.0028
      3 C           6.8862   -7.7583    0.0000 C.ar    1  UNL1        0.0028
      4 C           6.8862  -12.9897    0.0000 C.ar    1  UNL1        0.0001
      5 C           4.6210   -9.0662    0.0000 C.ar    1  UNL1        0.0001
      6 C           4.6210  -11.6818    0.0000 C.ar    1  UNL1        0.0000
      7 C          11.4168   -7.7583    0.0000 C.2     1  UNL1        0.1735
      8 O          13.6821   -9.0661    0.0000 O.2     1  UNL1       -0.2913
      9 C          11.4168   -5.1426    0.0000 C.3     1  UNL1        0.0773
@<TRIPOS>BOND
     1     1     2   ar
     2     1     3   ar
     3     2     4   ar
     4     3     5   ar
     5     4     6   ar
     6     5     6   ar
     7     1     7    1
     8     7     8    2
     9     7     9    1
